#
# Generated from file CHEMKIN_FORMATATED.txt
# by ck2cti on Tue May 30 08:32:00 2006
#
units(length = "cm", time = "s", quantity = "mol", act_energy = "cal/mol")


ideal_gas(name = "LundBase",
      elements = " C  H  O  N ",
      species = """ H  O  OH  HO2  H2O2  CH  HCO  S-CH2  T-CH2  CH2O 
                   CH3  CH3O  CH2OH  CH3O2  CH4  CH3OH  CH3O2H  C2H  C2O  HCCO 
                   C2H2  CH2CO  C2H3  CH2CHO  CH3CO  C2H4  CH3CHO  C2H5  C2H6  CH2CH2OH 
                   CH3CHOH  C2H5OH  C2H5O  C3H2  C3H3  C3H4  C3H4P  C3H5  C3H6  N-C3H7 
                   I-C3H7  C3H8  C4H  C4H2  H2C4O  N-C4H3  I-C4H3  C4H4  N-C4H5  I-C4H5 
                   C4H6  C4H612  C4H7  P-C4H8  S-C4H8  C-2-C4H8  S-C4H9  P-C4H9  C4H10  C5H2 
                   C5H3  C5H5  C5H6  C5H4O  C5H5O  C5H4OH  C6H  C6H2  C6H3  P-C6H4 
                   C-C6H4  N-C6H5  I-C6H5  PC6H6  N-C6H7  I-C6H7  C-C6H7  C6H8  S-C6H9  P-C6H9 
                   C6H10  C6H5O  C6H5OH  A1  A1-  A1C2H  A1C2H-  A1C2H*  N-A1C2H2  I-A1C2H2 
                   C  CO  CO2  H2  H2O  O2  N2  C2H3CO  C2H3CHO  C2H4CHO 
                   C2H5CO  C2H5CHO  CH3COCH3  CH3COCH2  CH2CH2CH2CHO  CH3CHCH2CHO  CH3CH2CHCHO  C2H5COCH2  N-C3H7CHO  N-C3H7CO 
                   CH2CHCH2CHO  AC3H5CO  CH2CH2COCH3  C2H3COCH3 """,
      reactions = "all",
      initial_state = state(temperature = 300.0,
                        pressure = OneAtm)    )



#-------------------------------------------------------------------------------
#  Species data 
#-------------------------------------------------------------------------------

species(name = "H",
    atoms = " H:1 ",
    thermo = (
       NASA( [  300.00,  1000.00], [  2.500000000E+00,   0.000000000E+00, 
                0.000000000E+00,   0.000000000E+00,   0.000000000E+00,
                2.547162000E+04,  -4.601176000E-01] ),
       NASA( [ 1000.00,  5000.00], [  2.500000000E+00,   0.000000000E+00, 
                0.000000000E+00,   0.000000000E+00,   0.000000000E+00,
                2.547162000E+04,  -4.601176000E-01] )
             ),
    note = "120186"
       )

species(name = "O",
    atoms = " O:1 ",
    thermo = (
       NASA( [  300.00,  1000.00], [  2.946428000E+00,  -1.638166500E-03, 
                2.421031000E-06,  -1.602843100E-09,   3.890696000E-13,
                2.914764000E+04,   2.963995000E+00] ),
       NASA( [ 1000.00,  5000.00], [  2.542059000E+00,  -2.755061000E-05, 
               -3.102803000E-09,   4.551067000E-12,  -4.368051000E-16,
                2.923080000E+04,   4.920308000E+00] )
             ),
    note = "120186"
       )

species(name = "OH",
    atoms = " O:1  H:1 ",
    thermo = (
       NASA( [  300.00,  1000.00], [  3.637266000E+00,   1.850910000E-04, 
               -1.676164600E-06,   2.387202000E-09,  -8.431442000E-13,
                3.606781000E+03,   1.358860500E+00] ),
       NASA( [ 1000.00,  5000.00], [  2.882730000E+00,   1.013974300E-03, 
               -2.276877000E-07,   2.174683000E-11,  -5.126305000E-16,
                3.886888000E+03,   5.595712000E+00] )
             ),
    note = "121286"
       )

species(name = "HO2",
    atoms = " H:1  O:2 ",
    thermo = (
       NASA( [  300.00,  1000.00], [  2.979963000E+00,   4.996697000E-03, 
               -3.790997000E-06,   2.354192000E-09,  -8.089024000E-13,
                1.762273000E+02,   9.222724000E+00] ),
       NASA( [ 1000.00,  5000.00], [  4.072191000E+00,   2.131296000E-03, 
               -5.308145000E-07,   6.112269000E-11,  -2.841164000E-15,
               -1.579727000E+02,   3.476029000E+00] )
             ),
    note = "20387"
       )

species(name = "H2O2",
    atoms = " H:2  O:2 ",
    thermo = (
       NASA( [  300.00,  1000.00], [  3.388753000E+00,   6.569226000E-03, 
               -1.485012500E-07,  -4.625805000E-09,   2.471514000E-12,
               -1.766314000E+04,   6.785363000E+00] ),
       NASA( [ 1000.00,  5000.00], [  4.573167000E+00,   4.336136000E-03, 
               -1.474688800E-06,   2.348903000E-10,  -1.431653600E-14,
               -1.800696000E+04,   5.011369000E-01] )
             ),
    note = "120186"
       )

species(name = "CH",
    atoms = " C:1  H:1 ",
    thermo = (
       NASA( [  300.00,  1000.00], [  3.200202470E+00,   2.072875620E-03, 
               -5.134431380E-06,   5.733890250E-09,  -1.955533180E-12,
                7.045259380E+04,   3.331587790E+00] ),
       NASA( [ 1000.00,  5000.00], [  2.196223260E+00,   2.340381030E-03, 
               -7.058201280E-07,   9.007582180E-11,  -3.855040070E-15,
                7.086723440E+04,   9.178373340E+00] )
             ),
    note = "SSNL121286"
       )

species(name = "HCO",
    atoms = " H:1  C:1  O:1 ",
    thermo = (
       NASA( [  300.00,  1000.00], [  2.898329000E+00,   6.199146000E-03, 
               -9.623084000E-06,   1.089824900E-08,  -4.574885000E-12,
                4.159922000E+03,   8.983614000E+00] ),
       NASA( [ 1000.00,  5000.00], [  3.557271000E+00,   3.345572000E-03, 
               -1.335006000E-06,   2.470572000E-10,  -1.713850000E-14,
                3.916324000E+03,   5.552299000E+00] )
             ),
    note = "HCO WES 121286"
       )

species(name = "S-CH2",
    atoms = " C:1  H:2 ",
    thermo = (
       NASA( [  300.00,  1000.00], [  3.971265080E+00,  -1.699088750E-04, 
                1.025368870E-06,   2.492550830E-09,  -1.981266280E-12,
                4.989367580E+04,   5.753207210E-02] ),
       NASA( [ 1000.00,  5000.00], [  3.552888630E+00,   2.066788260E-03, 
               -1.914116010E-07,  -1.104673370E-10,   2.021349600E-14,
                4.984975390E+04,   1.686570050E+00] )
             ),
    note = "SSNL 31287"
       )

species(name = "T-CH2",
    atoms = " C:1  H:2 ",
    thermo = (
       NASA( [  300.00,  1000.00], [  3.762237070E+00,   1.159819080E-03, 
                2.489585430E-07,   8.800835620E-10,  -7.332435440E-13,
                4.536790630E+04,   1.712577580E+00] ),
       NASA( [ 1000.00,  5000.00], [  3.636407850E+00,   1.933056630E-03, 
               -1.687016320E-07,  -1.009899390E-10,   1.808255760E-14,
                4.534133980E+04,   2.156560660E+00] )
             ),
    note = "SSNL120186"
       )

species(name = "CH2O",
    atoms = " C:1  H:2  O:1 ",
    thermo = (
       NASA( [  300.00,  1000.00], [  1.652731180E+00,   1.263143870E-02, 
               -1.888168480E-05,   2.050031430E-08,  -8.413237120E-12,
               -1.486540430E+04,   1.378481960E+01] ),
       NASA( [ 1000.00,  5000.00], [  2.995606180E+00,   6.681321190E-03, 
               -2.628954690E-06,   4.737152890E-10,  -3.212517470E-14,
               -1.532036910E+04,   6.912572380E+00] )
             ),
    note = "SSNL121286"
       )

species(name = "CH3",
    atoms = " C:1  H:3 ",
    thermo = (
       NASA( [  300.00,  1000.00], [  2.430442810E+00,   1.112409870E-02, 
               -1.680220340E-05,   1.621828720E-08,  -5.864952620E-12,
                1.642378130E+04,   6.789793970E+00] ),
       NASA( [ 1000.00,  5000.00], [  2.844051600E+00,   6.137974100E-03, 
               -2.230345220E-06,   3.785160800E-10,  -2.452159030E-14,
                1.643780860E+04,   5.452697280E+00] )
             ),
    note = "SSNL121286"
       )

species(name = "CH3O",
    atoms = " C:1  H:3  O:1 ",
    thermo = (
       NASA( [  300.00,  1000.00], [  2.106204000E+00,   7.216595100E-03, 
                5.338472000E-06,  -7.377636300E-09,   2.075610500E-12,
                9.786010700E+02,   1.315217700E+01] ),
       NASA( [ 1000.00,  5000.00], [  3.770799600E+00,   7.871497400E-03, 
               -2.656383900E-06,   3.944431400E-10,  -2.112616400E-14,
                1.278325200E+02,   2.929575000E+00] )
             ),
    note = "U10/77"
       )

species(name = "CH2OH",
    atoms = " H:3  C:1  O:1 ",
    thermo = (
       NASA( [  300.00,  1000.00], [  3.336840600E+00,   6.588123700E-03, 
                2.997932800E-06,  -5.871971400E-09,   2.122957200E-12,
               -3.316826700E+03,   8.066815400E+00] ),
       NASA( [ 1000.00,  5000.00], [  4.723504100E+00,   6.102044100E-03, 
               -1.913209400E-06,   2.760742700E-10,  -1.454836700E-14,
               -3.932916500E+03,  -8.524382100E-02] )
             ),
    note = "WAR U 3/78"
       )

species(name = "CH3O2",
    atoms = " C:1  H:3  O:2 ",
    thermo = (
       NASA( [  300.00,  1000.00], [  2.098649000E+00,   1.578635700E-02, 
                7.568326100E-08,  -1.127458700E-08,   5.666513300E-12,
                2.069587900E+03,   1.500706800E+01] ),
       NASA( [ 1000.00,  5000.00], [  6.681296300E+00,   8.005727100E-03, 
               -2.718850700E-06,   4.063136500E-10,  -2.192772500E-14,
                5.262185100E+02,  -9.942384700E+00] )
             ),
    note = "WAR L 1/84"
       )

species(name = "CH4",
    atoms = " C:1  H:4 ",
    thermo = (
       NASA( [  300.00,  1000.00], [  7.787414790E-01,   1.747668350E-02, 
               -2.783409040E-05,   3.049708040E-08,  -1.223930680E-11,
               -9.825228520E+03,   1.372219470E+01] ),
       NASA( [ 1000.00,  5000.00], [  1.683478830E+00,   1.023723560E-02, 
               -3.875128640E-06,   6.785584870E-10,  -4.503423120E-14,
               -1.008078710E+04,   9.623394970E+00] )
             ),
    note = "RRHO SSNL121296"
       )

species(name = "CH3OH",
    atoms = " C:1  H:4  O:1 ",
    thermo = (
       NASA( [  300.00,  1000.00], [  2.660115200E+00,   7.341507800E-03, 
                7.170050600E-06,  -8.793193700E-09,   2.390570400E-12,
               -2.535348400E+04,   1.123263100E+01] ),
       NASA( [ 1000.00,  5000.00], [  4.029061300E+00,   9.376592900E-03, 
               -3.050254200E-06,   4.358793300E-10,  -2.224723200E-14,
               -2.615791000E+04,   2.378195800E+00] )
             ),
    note = "T 4/82"
       )

species(name = "CH3O2H",
    atoms = " C:1  H:4  O:2 ",
    thermo = (
       NASA( [  300.00,  1000.00], [  2.098649000E+00,   1.578635700E-02, 
                7.568326100E-08,  -1.127458700E-08,   5.666513300E-12,
                2.069587900E+03,   1.500706800E+01] ),
       NASA( [ 1000.00,  5000.00], [  6.681296300E+00,   8.005727100E-03, 
               -2.718850700E-06,   4.063136500E-10,  -2.192772500E-14,
                5.262185100E+02,  -9.942384700E+00] )
             ),
    note = "WAR L 1/84"
       )

species(name = "C2H",
    atoms = " C:2  H:1 ",
    thermo = (
       NASA( [  300.00,  1000.00], [  1.985685400E+00,   1.336267000E-02, 
               -2.237456700E-05,   2.002158800E-08,  -6.860575600E-12,
                6.692124600E+04,   1.047644700E+01] ),
       NASA( [ 1000.00,  5000.00], [  4.516518500E+00,   2.070398100E-03, 
               -5.279708400E-07,   8.187832400E-11,  -6.023242400E-15,
                6.636836700E+04,  -1.704023500E+00] )
             ),
    note = "WAR 0"
       )

species(name = "C2O",
    atoms = " C:2  O:1 ",
    thermo = (
       NASA( [  300.00,  1000.00], [  3.368850000E+00,   8.241803000E-03, 
               -8.765145000E-06,   5.569262000E-09,  -1.540008600E-12,
                3.317081000E+04,   6.713314000E+00] ),
       NASA( [ 1000.00,  5000.00], [  4.849809000E+00,   2.947585000E-03, 
               -1.090728600E-06,   1.792562000E-10,  -1.115758500E-14,
                3.282055000E+04,  -6.453225000E-01] )
             ),
    note = "121286"
       )

species(name = "HCCO",
    atoms = " H:1  C:2  O:1 ",
    thermo = (
       NASA( [  300.00,  1000.00], [  5.047965050E+00,   4.453477920E-03, 
                2.268282770E-07,  -1.482094560E-09,   2.250741500E-13,
                1.965891800E+04,   4.818439480E-01] ),
       NASA( [ 1000.00,  4000.00], [  6.758072850E+00,   2.000400330E-03, 
               -2.027607310E-07,  -1.041131830E-10,   1.965164720E-14,
                1.901513280E+04,  -9.071262360E+00] )
             ),
    note = "32387"
       )

species(name = "C2H2",
    atoms = " C:2  H:2 ",
    thermo = (
       NASA( [  300.00,  1000.00], [  2.013562200E+00,   1.519044580E-02, 
               -1.616318880E-05,   9.078991780E-09,  -1.912746000E-12,
                2.612444340E+04,   8.805377960E+00] ),
       NASA( [ 1000.00,  5000.00], [  4.436770440E+00,   5.376039070E-03, 
               -1.912816740E-06,   3.286378950E-10,  -2.156709530E-14,
                2.566766410E+04,  -2.800338270E+00] )
             ),
    note = "SNLL121386"
       )

species(name = "CH2CO",
    atoms = " C:2  H:2  O:1 ",
    thermo = (
       NASA( [  300.00,  1000.00], [  2.974970800E+00,   1.211871200E-02, 
               -2.345045700E-06,  -6.466685000E-09,   3.905649200E-12,
               -7.632636700E+03,   8.673552500E+00] ),
       NASA( [ 1000.00,  5000.00], [  6.038817400E+00,   5.804840500E-03, 
               -1.920953800E-06,   2.794484600E-10,  -1.458867500E-14,
               -8.583402300E+03,  -7.657581300E+00] )
             ),
    note = "(KETEN) T10/82"
       )

species(name = "C2H3",
    atoms = " C:2  H:3 ",
    thermo = (
       NASA( [  300.00,  1000.00], [  2.459276440E+00,   7.371476390E-03, 
                2.109872870E-06,  -1.321642130E-09,  -1.184783830E-12,
                3.335225000E+04,   1.155620190E+01] ),
       NASA( [ 1000.00,  5000.00], [  5.933467870E+00,   4.017745610E-03, 
               -3.966739540E-07,  -1.441266550E-10,   2.378643510E-14,
                3.185434570E+04,  -8.530312540E+00] )
             ),
    note = "SNLL012887"
       )

species(name = "CH2CHO",
    atoms = " O:1  H:3  C:2 ",
    thermo = (
       NASA( [  300.00,  1000.00], [  3.409062400E+00,   1.073857400E-02, 
                1.891492500E-06,  -7.158583100E-09,   2.867385100E-12,
                1.521476600E+03,   9.558290500E+00] ),
       NASA( [ 1000.00,  5000.00], [  5.975669900E+00,   8.130591400E-03, 
               -2.743624500E-06,   4.070304100E-10,  -2.176017100E-14,
                4.903217800E+02,  -5.045250900E+00] )
             ),
    note = "T04/83"
       )

species(name = "CH3CO",
    atoms = " C:2  H:3  O:1 ",
    thermo = (
       NASA( [  300.00,  1000.00], [  3.125278500E+00,   9.778220200E-03, 
                4.521448300E-06,  -9.009461600E-09,   3.193717900E-12,
               -4.108507800E+03,   1.122885400E+01] ),
       NASA( [ 1000.00,  5000.00], [  5.612278900E+00,   8.449886000E-03, 
               -2.854147200E-06,   4.238376300E-10,  -2.268403700E-14,
               -5.187863300E+03,  -3.274949100E+00] )
             ),
    note = "(ACYL) T10/82"
       )

species(name = "C2H4",
    atoms = " C:2  H:4 ",
    thermo = (
       NASA( [  300.00,  1000.00], [ -8.614879850E-01,   2.796162850E-02, 
               -3.388677210E-05,   2.785152200E-08,  -9.737878910E-12,
                5.573045900E+03,   2.421148680E+01] ),
       NASA( [ 1000.00,  5000.00], [  3.528418780E+00,   1.148518450E-02, 
               -4.418385290E-06,   7.844600530E-10,  -5.266848490E-14,
                4.428288570E+03,   2.230389120E+00] )
             ),
    note = "SNLL121286"
       )

species(name = "CH3CHO",
    atoms = " C:2  O:1  H:4 ",
    thermo = (
       NASA( [  300.00,  1000.00], [  2.505695300E+00,   1.336990700E-02, 
                4.671953300E-06,  -1.128140100E-08,   4.263566100E-12,
               -2.124588700E+04,   1.335088700E+01] ),
       NASA( [ 1000.00,  5000.00], [  5.868650400E+00,   1.079424100E-02, 
               -3.645530300E-06,   5.412912300E-10,  -2.896844200E-14,
               -2.264568700E+04,  -6.012946100E+00] )
             ),
    note = "ACETALD T 8/81"
       )

species(name = "C2H5",
    atoms = " C:2  H:5 ",
    thermo = (
       NASA( [  300.00,  1000.00], [  2.690701720E+00,   8.719133210E-03, 
                4.419838660E-06,   9.338703140E-10,  -3.927773470E-12,
                1.287040430E+04,   1.213819500E+01] ),
       NASA( [ 1000.00,  5000.00], [  7.190480230E+00,   6.484077310E-03, 
               -6.428064690E-07,  -2.347879390E-10,   3.880877280E-14,
                1.067454880E+04,  -1.478089240E+01] )
             ),
    note = "SNLL012387"
       )

species(name = "C2H6",
    atoms = " C:2  H:6 ",
    thermo = (
       NASA( [  300.00,  1000.00], [  1.462538700E+00,   1.549466700E-02, 
                5.780507300E-06,  -1.257831900E-08,   4.586267100E-12,
               -1.123917600E+04,   1.443229500E+01] ),
       NASA( [ 1000.00,  4000.00], [  4.825938200E+00,   1.384042900E-02, 
               -4.557258800E-06,   6.724967200E-10,  -3.598161400E-14,
               -1.271779300E+04,  -5.239506700E+00] )
             ),
    note = "WAR T12/78"
       )

species(name = "CH2CH2OH",
    atoms = " H:5  C:2  O:1 ",
    thermo = (
       NASA( [  300.00,  1000.00], [  1.401950800E+00,   2.154317500E-02, 
               -2.232651200E-06,  -1.446409200E-08,   8.048842000E-12,
               -3.846451900E+03,   1.913581800E+01] ),
       NASA( [ 1000.00,  5000.00], [  7.594401400E+00,   9.322933900E-03, 
               -3.030385400E-06,   4.321631900E-10,  -2.197003900E-14,
               -5.772785200E+03,  -1.396873500E+01] )
             ),
    note = "T 4/83"
       )

species(name = "CH3CHOH",
    atoms = " C:2  O:1  H:5 ",
    thermo = (
       NASA( [  300.00,  1000.00], [  2.481332800E+00,   1.679003600E-02, 
                3.775549900E-06,  -1.392349700E-08,   6.009519300E-12,
               -4.012005400E+03,   1.456845900E+01] ),
       NASA( [ 1000.00,  5000.00], [  6.766542400E+00,   1.163443600E-02, 
               -3.779065100E-06,   5.382887500E-10,  -2.731534500E-14,
               -5.609296900E+03,  -9.411207200E+00] )
             ),
    note = "T 4/83"
       )

species(name = "C2H5OH",
    atoms = " C:2  H:6  O:1 ",
    thermo = (
       NASA( [  300.00,  1000.00], [  1.648722600E+00,   2.113964400E-02, 
                3.267203300E-06,  -1.637539900E-08,   7.352178800E-12,
               -2.967359800E+04,   1.827142300E+01] ),
       NASA( [ 1000.00,  5000.00], [  7.908728600E+00,   1.222772900E-02, 
               -3.514424900E-06,   4.257203500E-10,  -1.546817700E-14,
               -3.194386700E+04,  -1.642689500E+01] )
             ),
    note = "WAR U 5/79"
       )

species(name = "C2H5O",
    atoms = " O:1  C:2  H:5 ",
    thermo = (
       NASA( [  300.00,  1000.00], [  1.730250400E+00,   1.690848900E-02, 
                3.999622100E-06,  -1.371118000E-08,   5.764360300E-12,
               -3.292248300E+03,   1.732295200E+01] ),
       NASA( [ 1000.00,  5000.00], [  6.011434600E+00,   1.216521900E-02, 
               -4.044960400E-06,   5.907658800E-10,  -3.096959500E-14,
               -4.936699200E+03,  -6.803342800E+00] )
             ),
    note = "T11/82"
       )

species(name = "C3H2",
    atoms = " C:3  H:2 ",
    thermo = (
       NASA( [  300.00,  1000.00], [  2.691077000E+00,   1.480366400E-02, 
               -3.250551000E-06,  -8.644363000E-09,   5.284877000E-12,
                5.219072000E+04,   8.757391000E+00] ),
       NASA( [ 1000.00,  5000.00], [  6.530853000E+00,   5.870316000E-03, 
               -1.720776000E-06,   2.127498000E-10,  -8.291910000E-15,
                5.115213000E+04,  -1.122727800E+01] )
             ),
    note = "121686"
       )

species(name = "C3H3",
    atoms = " C:3  H:3 ",
    thermo = (
       NASA( [  300.00,  1000.00], [  2.509732200E+00,   1.710386600E-02, 
               -4.571085800E-06,  -8.284157400E-09,   5.436228700E-12,
                3.704068000E+04,   1.101126400E+01] ),
       NASA( [ 1000.00,  5000.00], [  8.091625200E+00,   3.737285000E-03, 
                1.388664700E-06,  -1.229860400E-09,   2.068158500E-13,
                3.543779300E+04,  -1.820446800E+01] )
             ),
    note = "U12/77"
       )

species(name = "C3H4",
    atoms = " C:3  H:4 ",
    thermo = (
       NASA( [  300.00,  1400.00], [  2.539831000E+00,   1.633437000E-02, 
               -1.764950000E-06,  -4.647365000E-09,   1.729131000E-12,
                2.251243000E+04,   9.935702000E+00] ),
       NASA( [ 1400.00,  5000.00], [  9.776256000E+00,   5.302138000E-03, 
               -3.701118000E-07,  -3.026386000E-10,   5.089581000E-14,
                1.954972000E+04,  -3.077061000E+01] )
             ),
    note = "121686"
       )

species(name = "C3H4P",
    atoms = " H:4  C:3 ",
    thermo = (
       NASA( [  300.00,  1000.00], [  2.668112800E+00,   1.617778800E-02, 
                9.723662500E-07,  -1.153265600E-08,   5.652098600E-12,
                2.080095700E+04,   9.874091100E+00] ),
       NASA( [ 1000.00,  5000.00], [  6.534463900E+00,   1.033774400E-02, 
               -3.400105900E-06,   4.909137500E-10,  -2.536374800E-14,
                1.944170700E+04,  -1.139594300E+01] )
             ),
    note = "PROPIN U05/78"
       )

species(name = "C3H5",
    atoms = " C:3  H:5 ",
    thermo = (
       NASA( [  300.00,  1000.00], [ -5.410040000E-01,   2.728410100E-02, 
               -9.636532900E-07,  -1.912946200E-08,   9.839417500E-12,
                1.513039500E+04,   2.606733700E+01] ),
       NASA( [ 1000.00,  5000.00], [  7.909197800E+00,   1.211525500E-02, 
               -4.117586300E-06,   6.156679600E-10,  -3.323573300E-14,
                1.235415600E+04,  -1.967233300E+01] )
             ),
    note = "BUR 84"
       )

species(name = "C3H6",
    atoms = " C:3  H:6 ",
    thermo = (
       NASA( [  300.00,  1000.00], [  1.493307100E+00,   2.092517000E-02, 
                4.486794000E-06,  -1.668912100E-08,   7.158146000E-12,
                1.074826400E+03,   1.614534000E+01] ),
       NASA( [ 1000.00,  5000.00], [  6.732257000E+00,   1.490833600E-02, 
               -4.949899000E-06,   7.212022000E-10,  -3.766204000E-14,
               -9.235703000E+02,  -1.331334800E+01] )
             ),
    note = "120186"
       )

species(name = "N-C3H7",
    atoms = " C:3  H:7 ",
    thermo = (
       NASA( [  300.00,  1000.00], [  1.922536000E+00,   2.478927000E-02, 
                1.810249000E-06,  -1.783265000E-08,   8.582996000E-12,
                9.713281000E+03,   1.399271500E+01] ),
       NASA( [ 1000.00,  5000.00], [  7.978290000E+00,   1.576113400E-02, 
               -5.173243000E-06,   7.443892000E-10,  -3.824978000E-14,
                7.579402000E+03,  -1.935611000E+01] )
             ),
    note = "120186"
       )

species(name = "I-C3H7",
    atoms = " C:3  H:7 ",
    thermo = (
       NASA( [  300.00,  1000.00], [  1.713299000E+00,   2.542616000E-02, 
                1.580808300E-06,  -1.821286000E-08,   8.827710000E-12,
                7.535808000E+03,   1.297900800E+01] ),
       NASA( [ 1000.00,  5000.00], [  8.063369000E+00,   1.574487600E-02, 
               -5.182391000E-06,   7.477245000E-10,  -3.854422000E-14,
                5.313871000E+03,  -2.192646000E+01] )
             ),
    note = "120186"
       )

species(name = "C3H8",
    atoms = " C:3  H:8 ",
    thermo = (
       NASA( [  300.00,  1000.00], [  8.969208000E-01,   2.668986000E-02, 
                5.431425000E-06,  -2.126000000E-08,   9.243330000E-12,
               -1.395491800E+04,   1.935533000E+01] ),
       NASA( [ 1000.00,  5000.00], [  7.525217000E+00,   1.889034000E-02, 
               -6.283924000E-06,   9.179373000E-10,  -4.812410000E-14,
               -1.646454800E+04,  -1.784390000E+01] )
             ),
    note = "120186"
       )

species(name = "C4H",
    atoms = " C:4  H:1 ",
    thermo = (
       NASA( [  300.00,  1000.00], [  1.318629500E+00,   3.858295600E-02, 
               -7.138562300E-05,   6.535635900E-08,  -2.261766600E-11,
                9.545610600E+04,   1.556758300E+01] ),
       NASA( [ 1000.00,  3000.00], [  7.769759300E+00,   4.982997600E-03, 
               -1.762854600E-06,   2.814428400E-10,  -1.668986900E-14,
                9.434590000E+04,  -1.416527400E+01] )
             ),
    note = "P 1/93"
       )

species(name = "C4H2",
    atoms = " C:4  H:2 ",
    thermo = (
       NASA( [  300.00,  1000.00], [  4.005191800E+00,   1.981000200E-02, 
               -9.865877500E-06,  -6.635158200E-09,   6.077412900E-12,
                5.115669300E+04,   1.845736500E+00] ),
       NASA( [ 1000.00,  5000.00], [  9.031407400E+00,   6.047252600E-03, 
               -1.948788800E-06,   2.754863000E-10,  -1.385608000E-14,
                4.986340000E+04,  -2.385067700E+01] )
             ),
    note = "FRENKLACH"
       )

species(name = "H2C4O",
    atoms = " H:2  C:4  O:1 ",
    thermo = (
       NASA( [  300.00,  1000.00], [  4.810971000E+00,   1.313999000E-02, 
                9.865073000E-07,  -6.120720000E-09,   1.640003000E-12,
                2.545803000E+04,   2.113424000E+00] ),
       NASA( [ 1000.00,  4000.00], [  1.026888000E+01,   4.896164000E-03, 
               -4.885081000E-07,  -2.708566000E-10,   5.107013000E-14,
                2.346903000E+04,  -2.815985000E+01] )
             ),
    note = "120189"
       )

species(name = "N-C4H3",
    atoms = " C:4  H:3 ",
    thermo = (
       NASA( [  300.00,  1000.00], [ -3.168411300E-01,   4.691210000E-02, 
               -6.809381000E-05,   5.317992100E-08,  -1.652300500E-11,
                6.247619900E+04,   2.462255900E+01] ),
       NASA( [ 1000.00,  3000.00], [  5.432827900E+00,   1.686098100E-02, 
               -9.431310900E-06,   2.570389500E-09,  -2.745630900E-13,
                6.160068000E+04,  -1.567398100E+00] )
             ),
    note = "H6W/94"
       )

species(name = "I-C4H3",
    atoms = " C:4  H:3 ",
    thermo = (
       NASA( [  300.00,  1000.00], [  2.083041200E+00,   4.083427400E-02, 
               -6.215968500E-05,   5.167935800E-08,  -1.702918400E-11,
                5.800512900E+04,   1.361746200E+01] ),
       NASA( [ 1000.00,  3000.00], [  9.097816500E+00,   9.220711900E-03, 
               -3.387844100E-06,   4.916049800E-10,  -1.452978000E-14,
                5.660057400E+04,  -1.980259700E+01] )
             ),
    note = "AB1/93"
       )

species(name = "C4H4",
    atoms = " C:4  H:4 ",
    thermo = (
       NASA( [  300.00,  1000.00], [ -1.915247900E+00,   5.275087800E-02, 
               -7.165594400E-05,   5.507242300E-08,  -1.728622800E-11,
                3.297850400E+04,   3.141998300E+01] ),
       NASA( [ 1000.00,  3000.00], [  6.650709200E+00,   1.612943400E-02, 
               -7.193887500E-06,   1.498178700E-09,  -1.186411000E-13,
                3.119599200E+04,  -9.795211800E+00] )
             ),
    note = "H6W/94"
       )

species(name = "N-C4H5",
    atoms = " C:4  H:5 ",
    thermo = (
       NASA( [  300.00,  1000.00], [  2.995240000E+00,   2.288456000E-02, 
                1.975471000E-06,  -1.148245400E-08,   3.197823000E-12,
                4.142218000E+04,   1.289453900E+01] ),
       NASA( [ 1000.00,  4000.00], [  1.286597100E+01,   7.943369000E-03, 
               -8.626466000E-07,  -4.655635000E-10,   8.951131000E-14,
                3.783552000E+04,  -4.182502000E+01] )
             ),
    note = "CH2CHCHCH 82489"
       )

species(name = "I-C4H5",
    atoms = " C:4  H:5 ",
    thermo = (
       NASA( [  300.00,  1000.00], [  3.879443000E+00,   1.997663000E-02, 
                1.872777000E-06,  -9.306953000E-09,   2.386116000E-12,
                3.526859000E+04,   9.842152000E+00] ),
       NASA( [ 1000.00,  4000.00], [  1.199776200E+01,   7.990580000E-03, 
               -8.098172000E-07,  -4.568733000E-10,   8.636911000E-14,
                3.228493000E+04,  -3.528494000E+01] )
             ),
    note = "CH2CHCCH2 82489"
       )

species(name = "C4H6",
    atoms = " C:4  H:6 ",
    thermo = (
       NASA( [  300.00,  1000.00], [  1.931624000E+00,   2.479030000E-02, 
                3.018071000E-06,  -1.154685600E-08,   2.586623000E-12,
                1.255468200E+04,   1.701999000E+01] ),
       NASA( [ 1000.00,  4000.00], [  1.254436600E+01,   9.596525000E-03, 
               -9.187012000E-07,  -5.429640000E-10,   1.005363600E-13,
                8.597330000E+03,  -4.217450000E+01] )
             ),
    note = "BUTADIEN 120189"
       )

species(name = "C4H612",
    atoms = " C:4  H:6 ",
    thermo = (
       NASA( [  300.00,  1000.00], [  1.023467000E+00,   3.495919000E-02, 
               -2.200905000E-05,   6.942272000E-09,  -7.879187000E-13,
                1.811799000E+04,   1.975066000E+01] ),
       NASA( [ 1000.00,  3000.00], [  1.781557000E+01,  -4.257502000E-03, 
                1.051185000E-05,  -4.473844000E-09,   5.848138000E-13,
                1.267342000E+04,  -6.982662000E+01] )
             ),
    note = "A 8/83"
       )

species(name = "C4H7",
    atoms = " C:4  H:7 ",
    thermo = (
       NASA( [  300.00,  1000.00], [  9.278151000E+00,  -2.956305000E-02, 
                1.632866000E-04,  -2.000576000E-07,   7.934605000E-11,
                1.963813000E+04,  -1.296553000E+01] ),
       NASA( [ 1000.00,  5000.00], [  5.440662000E+00,   2.744603000E-02, 
               -1.365496000E-05,   3.340352000E-09,  -3.290050000E-13,
                1.903712000E+04,  -2.875965000E+00] )
             ),
    note = "A 8/83"
       )

species(name = "P-C4H8",
    atoms = " C:4  H:8 ",
    thermo = (
       NASA( [  300.00,  1000.00], [  1.181138000E+00,   3.085338000E-02, 
                5.086524700E-06,  -2.465488800E-08,   1.111019300E-11,
               -1.790400400E+03,   2.106246900E+01] ),
       NASA( [ 1000.00,  5000.00], [  2.053584100E+00,   3.435050700E-02, 
               -1.588319700E-05,   3.308966200E-09,  -2.536104500E-13,
               -2.139723100E+03,   1.554320100E+01] )
             ),
    note = "T 6/83"
       )

species(name = "S-C4H8",
    atoms = " C:4  H:8 ",
    thermo = (
       NASA( [  300.00,  1000.00], [  1.259425200E+00,   2.780842400E-02, 
                8.701393200E-06,  -2.440220500E-08,   9.897771000E-12,
               -2.964774200E+03,   2.050112900E+01] ),
       NASA( [ 1000.00,  5000.00], [  8.279767600E-01,   3.586453900E-02, 
               -1.663449800E-05,   3.473275900E-09,  -2.665739800E-13,
               -3.052103300E+03,   2.134254500E+01] )
             ),
    note = "T 6/83"
       )

species(name = "C-2-C4H8",
    atoms = " C:4  H:8 ",
    thermo = (