#
# Generated from file prf_2d_mech.txt
# by ck2cti on Thu May 11 16:15:46 2006
#
units(length = "cm", time = "s", quantity = "mol", act_energy = "cal/mol")


ideal_gas(name = "prf_2d_mech",
      elements = " H  C  O  N  Ar ",
      species = """ h  h2  o  o2  oh  h2o  n2  co  hco  co2 
                   ch3  ch4  ho2  h2o2  ch2o  ch3o  c2h6  c2h4  c2h5  ch2 
                   ch  c2h  c2h2  c2h3  ch3oh  ch2oh  ch2co  hcco  c2h5oh  pc2h4oh 
                   sc2h4oh  ch3co  ch2cho  ch3cho  c3h4-a  c3h4-p  c3h6  c4h6  nc3h7  ic3h7 
                   c3h8  ic4h7  ic4h8  c4h7  c4h8-2  c4h8-1  sc4h9  pc4h9  tc4h9  ic4h9 
                   ic4h10  c4h10  ch3coch3  ch3coch2  c2h5cho  c2h5co  c5h9  c5h10-1  c5h10-2  ic5h12 
                   ac5h11  bc5h11  cc5h11  dc5h11  ac5h10  bc5h10  cc5h10  ic5h9  nc5h12  c5h11-1 
                   c5h11-2  c5h11-3  neoc5h12  neoc5h11  c2h5o  ch3o2  c2h5o2  ch3o2h  c2h5o2h  c2h3o1-2 
                   ch3co2  c2h4o1-2  c2h4o2h  o2c2h4oh  ch3co3  ch3co3h  c2h3co  c2h3cho  c3h5o  c3h6ooh1-2 
                   c3h6ooh1-3  c3h6ooh2-1  c3h6ooh1-2o2  c3h6ooh1-3o2  c3h6ooh2-1o2  nc3h7o  ic3h7o  nc3h7o2h  ic3h7o2h  nc3h7o2 
                   ic3h7o2  c3h6o1-3  ic4h8o  ic4h8oh  io2c4h8oh  ic4h7o  c4h7o  c4h8oh-1  c4h8oh-2  c4h8oh-1o2 
                   c4h8oh-2o2  c4h8ooh1-2o2  c4h8ooh1-3o2  c4h8ooh1-4o2  c4h8ooh2-1o2  c4h8ooh2-3o2  c4h8ooh2-4o2  tc4h8ooh-io2  ic4h8ooh-io2  ic4h8ooh-to2 
                   c4h8ooh1-2  c4h8ooh1-3  c4h8ooh1-4  c4h8ooh2-1  c4h8ooh2-3  c4h8ooh2-4  ic4h8o2h-i  ic4h8o2h-t  tc4h8o2h-i  c4h8o1-2 
                   c4h8o1-3  c4h8o1-4  c4h8o2-3  cc4h8o  pc4h9o  sc4h9o  ic4h9o  tc4h9o  pc4h9o2h  sc4h9o2h 
                   ic4h9o2h  tc4h9o2h  tc4h9o2  ic4h9o2  sc4h9o2  pc4h9o2  ch3coch2o2  ch3coch2o2h  ch3coch2o  neoc5ketox 
                   neoc5kejol  ac5h11o2  bc5h11o2  cc5h11o2  dc5h11o2  ac5h11o2h  bc5h11o2h  cc5h11o2h  dc5h11o2h  ac5h11o 
                   bc5h11o  cc5h11o  dc5h11o  ac5h10ooh-a  ac5h10ooh-b  ac5h10ooh-c  ac5h10ooh-d  bc5h10ooh-a  bc5h10ooh-c  bc5h10ooh-d 
                   cc5h10ooh-a  cc5h10ooh-b  cc5h10ooh-d  dc5h10ooh-a  dc5h10ooh-b  dc5h10ooh-c  ac5h10ooh-ao2  ac5h10ooh-bo2  ac5h10ooh-co2  ac5h10ooh-do2 
                   bc5h10ooh-ao2  bc5h10ooh-co2  bc5h10ooh-do2  cc5h10ooh-ao2  cc5h10ooh-bo2  cc5h10ooh-do2  dc5h10ooh-ao2  dc5h10ooh-bo2  dc5h10ooh-co2  a-ac5h10o 
                   a-bc5h10o  a-cc5h10o  a-dc5h10o  b-cc5h10o  b-dc5h10o  c-dc5h10o  c5h11o2-1  c5h11o2-2  c5h11o2-3  c5h11o2h-1 
                   c5h11o2h-2  c5h11o2h-3  c5h11o-1  c5h11o-2  c5h11o-3  c5h10ooh1-2  c5h10ooh1-3  c5h10ooh1-4  c5h10ooh1-5  c5h10ooh2-1 
                   c5h10ooh2-3  c5h10ooh2-4  c5h10ooh2-5  c5h10ooh3-2  c5h10ooh3-1  c5h10ooh1-2o2  c5h10ooh1-3o2  c5h10ooh1-4o2  c5h10ooh1-5o2  c5h10ooh2-1o2 
                   c5h10ooh2-3o2  c5h10ooh2-4o2  c5h10ooh2-5o2  c5h10ooh3-1o2  c5h10ooh3-2o2  c5h10o1-2  c5h10o1-3  c5h10o1-4  c5h10o1-5  c5h10o2-3 
                   c5h10o2-4  neoc5h11o2  neoc5h11o2h  neoc5h11o  neoc5h10ooh  neoc5h10ooh-o2  neo-c5h10o  c3h5-a  c3h5-s  c3h5-t 
                   c3h3  c3h2  c3h6o1-2  ho2cho  o2cho  ocho  ch2(s)  c3ket12  c3ket13  c3ket21 
                   nc4ket12  nc4ket13  nc4ket14  nc4ket21  nc4ket23  nc4ket24  ic4ketii  ic4ketit  neoc5ket  nc5ket12 
                   nc5ket13  nc5ket14  nc5ket15  nc5ket21  nc5ket23  nc5ket24  nc5ket25  nc5ket31  nc5ket32  ic5ketaa 
                   ic5ketab  ic5ketac  ic5ketad  ic5ketca  ic5ketcb  ic5ketcd  ic5ketda  ic5ketdb  ic5ketdc  ic4h7-i1 
                   c3h6oh  hoc3h6o2  o2c2h4o2h  ch2o2hcho  ic4h7ooh  ic3h5cho  tc3h6ocho  tc3h6cho  ic3h7cho  ic4h7oh 
                   ic3h6co  ic4h6oh  ic3h5co  ic3h7co  tc3h6o2cho  tc3h6o2hco  ic3h5o2hcho  tc3h6ohcho  tc3h6oh  ic3h5oh 
                   tc4h8cho  o2c4h8cho  o2hc4h8co  o2hc4h7cho  c3h5oh  ch2cch2oh  nc3h7cho  nc3h7co  ch2ch2coch3  c2h5coch2 
                   c2h5coch3  ch2choohcoch3  ch3choohcoch3  ch3choococh3  ch3chcoch3  c2h3coch3  ch3chco  ch2ch2cho  c3h6cho-3  c3h6cho-2 
                   c2h5chco  ic3h5coch3  ic3h5coch2  ac3h4coch3  sc3h5coch2  ch3chocho  ch3chcho  sc3h5cho  sc3h5co  ic3h6cho 
                   c3h6cho-1  c2h5coc2h5  c2h5coc2h4p  c2h5coc2h4s  c2h5coc2h3  pc2h4coc2h3  sc2h4coc2h3  ic3h6chcho  ic3h6chco  ac3h5chcho 
                   ic3h6chcoch3  ac3h5chcoch3  ic3h6chcoch2  nc3h7coch3  nc3h7coch2  c3h6coch3-1  c3h6coch3-2  c3h6coch3-3  ic3h7coch3  ic3h7coch2 
                   ic3h6coch3  tc3h6coch3  nc3h7coc2h5  c3h6coc2h5-1  c3h6coc2h5-2  c3h6coc2h5-3  nc3h7coc2h4p  nc3h7coc2h4s  ic3h7coc2h5  ic3h6coc2h5 
                   tc3h6coc2h5  ic3h7coc2h4p  ic3h7coc2h4s  ic3h7coc2h3  ic3h6coc2h3  tc3h6coc2h3  ic3h5coc2h5  ac3h4coc2h5  ic3h5coc2h4p  ic3h5coc2h4s 
                   nc4h9cho  nc4h9co  ac3h5cho  ac3h5co  c2h3chcho  c4h8cho-1  c4h8cho-2  c4h8cho-3  c4h8cho-4  neoc5h9q2 
                   neoc5h9q2-n  ic4h6q2-ii  hoch2o  hocho  ic6h14  ac6h13  bc6h13  cc6h13  dc6h13  ec6h13 
                   ac6h12  bc6h12  cc6h12  dc6h12  ic6h11  ac6h13o2  bc6h13o2  cc6h13o2  dc6h13o2  ec6h13o2 
                   ac6h13o2h  bc6h13o2h  cc6h13o2h  dc6h13o2h  ec6h13o2h  ac6h13o  bc6h13o  cc6h13o  dc6h13o  ec6h13o 
                   ac6h12ooh-a  ac6h12ooh-b  ac6h12ooh-c  ac6h12ooh-d  ac6h12ooh-e  bc6h12ooh-a  bc6h12ooh-c  bc6h12ooh-d  bc6h12ooh-e  cc6h12ooh-a 
                   cc6h12ooh-b  cc6h12ooh-d  cc6h12ooh-e  dc6h12ooh-a  dc6h12ooh-b  dc6h12ooh-c  dc6h12ooh-e  ec6h12ooh-a  ec6h12ooh-b  ec6h12ooh-c 
                   ec6h12ooh-d  a-ac6h12o  a-bc6h12o  a-cc6h12o  a-dc6h12o  a-ec6h12o  b-cc6h12o  b-dc6h12o  b-ec6h12o  c-dc6h12o 
                   c-ec6h12o  d-ec6h12o  ac6h12ooh-ao2  ac6h12ooh-bo2  ac6h12ooh-co2  ac6h12ooh-do2  ac6h12ooh-eo2  bc6h12ooh-ao2  bc6h12ooh-co2  bc6h12ooh-do2 
                   bc6h12ooh-eo2  cc6h12ooh-ao2  cc6h12ooh-bo2  cc6h12ooh-do2  cc6h12ooh-eo2  dc6h12ooh-ao2  dc6h12ooh-bo2  dc6h12ooh-co2  dc6h12ooh-eo2  ec6h12ooh-ao2 
                   ec6h12ooh-bo2  ec6h12ooh-co2  ec6h12ooh-do2  ic6ketaa  ic6ketab  ic6ketac  ic6ketad  ic6ketae  ic6ketca  ic6ketcb 
                   ic6ketcd  ic6ketce  ic6ketda  ic6ketdb  ic6ketdc  ic6ketde  ic6ketea  ic6keteb  ic6ketec  ic6keted 
                   nc4h9cho-2  nc4h9co-2  c4h8cho1-2  c4h8cho2-2  c4h8cho3-2  c4h8cho4-2  ic4h9cho  ic4h9co  ic3h6ch2cho  tc3h6ch2cho 
                   ic3h7chcho  ic5h11cho  ic5h11co  ac5h10cho  bc5h10cho  cc5h10cho  dc5h10cho  c4h7cho1-4  c4h7co1-4  c4h6cho1-43 
                   c4h6cho1-44  c4h7cho2-1  c4h7co2-1  c4h6cho2-11  nc5h11cho-2  nc5h11co-2  c5h10cho1-2  c5h10cho2-2  c5h10cho3-2  c5h10cho4-2 
                   c5h10cho5-2  ic4h9coch3  ic4h9coch2  ic3h6ch2coch3  ic3h7chcoch3  tc3h6ch2coch3  neoc6h14  fc6h13  gc6h13  hc6h13 
                   neoc6h12  neoc6h11  fc6h13o2  gc6h13o2  hc6h13o2  fc6h13o2h  gc6h13o2h  hc6h13o2h  fc6h13o  gc6h13o 
                   hc6h13o  fc6h12ooh-f  fc6h12ooh-g  fc6h12ooh-h  gc6h12ooh-f  gc6h12ooh-h  hc6h12ooh-f  hc6h12ooh-g  fc6h12ooh-fo2  fc6h12ooh-go2 
                   fc6h12ooh-ho2  gc6h12ooh-fo2  gc6h12ooh-ho2  hc6h12ooh-fo2  hc6h12ooh-go2  f-fc6h12o  f-gc6h12o  f-hc6h12o  g-hc6h12o  neoc6ketff 
                   neoc6ketfg  neoc6ketfh  neoc6ketgf  neoc6ketgh  neoc6kethf  neoc6kethg  tc4h9cho  tc4h9co  neoc5h11cho  neoc5h11co 
                   tc4h9chcho  tc4h8ch2cho  ic4h7cho  ic4h7co  ac3h4ch2cho  ic3h5chcho  ic5h11cho-b  ic5h11co-b  ic5h10cho-ba  ic5h10cho-bc 
                   ic5h10cho-bd  c4h7cho1-2  c4h7co1-2  c4h6cho1-23  c4h6cho1-24  c4h7cho2-2  c4h7co2-2  c4h6cho2-21  c4h6cho2-24  ch2cchch3 
                   tc4h9coch3  tc4h9coch2  tc4h8coch3  ch2ccho  c7h162-4  xc7h15  yc7h15  zc7h15  xc7h14  yc7h14 
                   xc7h13  xc7h15o2  yc7h15o2  zc7h15o2  xc7h15o2h  yc7h15o2h  zc7h15o2h  xc7h15o  yc7h15o  zc7h15o 
                   xc7h14ooh-x1  xc7h14ooh-y1  xc7h14ooh-z  xc7h14ooh-y2  xc7h14ooh-x2  yc7h14ooh-x1  yc7h14ooh-z  yc7h14ooh-y2  yc7h14ooh-x2  zc7h14ooh-x 
                   zc7h14ooh-y  xc7h14ooh-x1o2  xc7h14ooh-x2o2  xc7h14ooh-y1o2  xc7h14ooh-y2o2  xc7h14ooh-zo2  yc7h14ooh-x1o2  yc7h14ooh-x2o2  yc7h14ooh-y2o2  yc7h14ooh-zo2 
                   zc7h14ooh-xo2  zc7h14ooh-yo2  x-x1c7h14o  x-x2c7h14o  x-y1c7h14o  x-y2c7h14o  x-zc7h14o  y-yc7h14o  y-zc7h14o  c7ket24xx1 
                   c7ket24xy1  c7ket24xz  c7ket24xy2  c7ket24xx2  c7ket24zx  c7ket24zy  neoc7h16  nc7h15  oc7h15  pc7h15 
                   qc7h15  oc7h14  pc7h14  pc7h13  nc7h15o2  oc7h15o2  pc7h15o2  qc7h15o2  nc7h15o2h  oc7h15o2h 
                   pc7h15o2h  qc7h15o2h  nc7h15o  oc7h15o  pc7h15o  qc7h15o  nc7h14ooh-n2  nc7h14ooh-q  qc7h14ooh-n  nc7h14ooh-o 
                   nc7h14ooh-p  qc7h14ooh-o  qc7h14ooh-p  oc7h14ooh-n  oc7h14ooh-q  pc7h14ooh-n  pc7h14ooh-q  oc7h14ooh-p  pc7h14ooh-o  nc7h14ooh-n2o2 
                   nc7h14ooh-qo2  qc7h14ooh-no2  nc7h14ooh-oo2  nc7h14ooh-po2  qc7h14ooh-oo2  qc7h14ooh-po2  oc7h14ooh-no2  oc7h14ooh-qo2  pc7h14ooh-no2  pc7h14ooh-qo2 
                   oc7h14ooh-po2  pc7h14ooh-oo2  n-nc7h14o  n-oc7h14o  n-pc7h14o  n-qc7h14o  o-pc7h14o  o-qc7h14o  p-qc7h14o  neoc7ketnn 
                   neoc7ketno  neoc7ketnp  neoc7ketnq  neoc7keton  neoc7ketop  neoc7ketoq  neoc7ketpn  neoc7ketpo  neoc7ketpq  neoc7ketqn 
                   neoc7ketqo  neoc7ketqp  ic8h18  ac8h17  bc8h17  cc8h17  dc8h17  ic8h16  jc8h16  ic8h14 
                   ic8h15  ac8h17o2  bc8h17o2  cc8h17o2  dc8h17o2  ac8h17o2h  bc8h17o2h  cc8h17o2h  dc8h17o2h  ac8h17o 
                   bc8h17o  cc8h17o  dc8h17o  ac8h16ooh-a  ac8h16ooh-b  ac8h16ooh-c  ac8h16ooh-d  bc8h16ooh-c  bc8h16ooh-a  bc8h16ooh-d 
                   cc8h16ooh-d  cc8h16ooh-b  cc8h16ooh-a  dc8h16ooh-c  dc8h16ooh-d  dc8h16ooh-b  dc8h16ooh-a  ic8eteraa  ic8eterab  ic8eterac 
                   ic8eterad  ic8eterbc  ic8eterbd  ic8etercd  ic8eterdd  ac8h16ooh-ao2  ac8h16ooh-bo2  ac8h16ooh-co2  ac8h16ooh-do2  bc8h16ooh-co2 
                   bc8h16ooh-ao2  bc8h16ooh-do2  cc8h16ooh-do2  cc8h16ooh-bo2  cc8h16ooh-ao2  dc8h16ooh-co2  dc8h16ooh-do2  dc8h16ooh-bo2  dc8h16ooh-ao2  ic8ketaa 
                   ic8ketab  ic8ketac  ic8ketad  ic8ketba  ic8ketbc  ic8ketbd  ic8ketda  ic8ketdb  ic8ketdc  ic8ketdd 
                   ic6h13cho-b  ic6h13co-b  ac6h12cho-b  cc6h12cho-b  dc6h12cho-b  ec6h12cho-b  ic6h13cho-d  ic6h13co-d  ac6h12cho-d  bc6h12cho-d 
                   cc6h12cho-d  dc6h12cho-d  ec6h12cho-d  ic3h7coc3h7-i  ic3h7coc3h6-i  ic3h7coc3h6-t  tc4h9coc2h5  tc4h8coc2h5  tc4h9coc2h4s  tc4h9coc2h4p 
                   neoc5h11coch3  neoc5h10coch3  tc4h9chcoch3  neoc5h11coch2  neoc6h13cho  neoc6h13co  fc6h12cho  gc6h12cho  hc6h12cho  ic4h7coch3 
                   ic4h7coch2  ic3h5chcoch3  ac3h4ch2coch3  xc7h13ooh-x1  xc7h13o-x1  yc7h13ooh-x1  yc7h13o-x1  oc7h13ooh-n  oc7h13o-n  xc7h13ooh-z 
                   xc7h13o-z  pc7h13ooh-o  pc7h13o-o  oc7h13ooh-q  oc7h13o-q  yc7h13ooh-x2  yc7h13o-x2  ac3h5ooh  neoc6h11-h  cc6h11o-b 
                   xc7h14oh-y  yc7h14oh-x  zc7h14oh-y  yc7h14oh-z  ic4h7oh-i1  oc7h14oh-p  pc7h14oh-o  qc7h14oh-p  pc7h14oh-q  xc7h14oh-yo2 
                   xc7h14o-yo2h  yc7h14oh-xo2  yc7h14o-xo2h  zc7h14oh-yo2  zc7h14o-yo2h  yc7h14oh-zo2  yc7h14o-zo2h  oc7h14oh-po2  oc7h14o-po2h  pc7h14oh-oo2 
                   pc7h14o-oo2h  qc7h14oh-po2  qc7h14o-po2h  pc7h14oh-qo2  pc7h14o-qo2h  cc8h16oh-b  bc8h16oh-c  cc8h16oh-d  dc8h16oh-c  cc8h16oh-bo2 
                   cc8h16o-bo2h  bc8h16oh-co2  bc8h16o-co2h  cc8h16oh-do2  cc8h16o-do2h  dc8h16oh-co2  dc8h16o-co2h  nc6h14  c6h13-1  c6h13-2 
                   c6h13-3  c6h12-1  c6h12-2  c6h12-3  c6h11  c6h12o1-2  c6h12o1-3  c6h12o1-4  c6h12o1-5  c6h12o2-3 
                   c6h12o2-4  c6h12o2-5  c6h12o3-4  c6h13o2h-1  c6h13o2h-2  c6h13o2h-3  c6h13o2-1  c6h13o2-2  c6h13o2-3  c6h12ooh1-2 
                   c6h12ooh1-3  c6h12ooh1-4  c6h12ooh1-5  c6h12ooh2-1  c6h12ooh2-3  c6h12ooh2-4  c6h12ooh2-5  c6h12ooh2-6  c6h12ooh3-1  c6h12ooh3-2 
                   c6h12ooh3-4  c6h12ooh3-5  c6h12ooh3-6  c6h12ooh1-2o2  c6h12ooh1-3o2  c6h12ooh1-4o2  c6h12ooh1-5o2  c6h12ooh2-1o2  c6h12ooh2-3o2  c6h12ooh2-4o2 
                   c6h12ooh2-5o2  c6h12ooh2-6o2  c6h12ooh3-1o2  c6h12ooh3-2o2  c6h12ooh3-4o2  c6h12ooh3-5o2  c6h12ooh3-6o2  nc6ket12  nc6ket13  nc6ket14 
                   nc6ket15  nc6ket21  nc6ket23  nc6ket24  nc6ket25  nc6ket26  nc6ket31  nc6ket32  nc6ket34  nc6ket35 
                   nc6ket36  c6h13o-1  c6h13o-2  c6h13o-3  nc7h16  c7h15-1  c7h15-2  c7h15-3  c7h15-4  c7h14-1 
                   c7h14-2  c7h14-3  c7h13  c7h15o2-1  c7h15o2-2  c7h15o2-3  c7h15o2-4  c7h15o2h-1  c7h15o2h-2  c7h15o2h-3 
                   c7h15o2h-4  c7h15o-1  c7h15o-2  c7h15o-3  c7h15o-4  c7h14ooh1-2  c7h14ooh1-3  c7h14ooh1-4  c7h14ooh1-5  c7h14ooh2-1 
                   c7h14ooh2-3  c7h14ooh2-4  c7h14ooh2-5  c7h14ooh2-6  c7h14ooh3-1  c7h14ooh3-2  c7h14ooh3-4  c7h14ooh3-5  c7h14ooh3-6  c7h14ooh3-7 
                   c7h14ooh4-1  c7h14ooh4-2  c7h14ooh4-3  c7h14ooh1-2o2  c7h14ooh1-3o2  c7h14ooh1-4o2  c7h14ooh1-5o2  c7h14ooh2-1o2  c7h14ooh2-3o2  c7h14ooh2-4o2 
                   c7h14ooh2-5o2  c7h14ooh2-6o2  c7h14ooh3-1o2  c7h14ooh3-2o2  c7h14ooh3-4o2  c7h14ooh3-5o2  c7h14ooh3-6o2  c7h14ooh3-7o2  c7h14ooh4-1o2  c7h14ooh4-2o2 
                   c7h14ooh4-3o2  c7h14o1-2  c7h14o1-3  c7h14o1-4  c7h14o1-5  c7h14o2-3  c7h14o2-4  c7h14o2-5  c7h14o2-6  c7h14o3-4 
                   c7h14o3-5  nc7ket12  nc7ket13  nc7ket14  nc7ket15  nc7ket21  nc7ket23  nc7ket24  nc7ket25  nc7ket26 
                   nc7ket31  nc7ket32  nc7ket34  nc7ket35  nc7ket36  nc7ket37  nc7ket41  nc7ket42  nc7ket43  nc5h11cho 
                   nc5h11co  c5h10cho-1  c5h10cho-2  c5h10cho-3  c5h10cho-4  c5h10cho-5  nc4h9coch3  nc4h9coch2  c4h8coch3-1  c4h8coch3-2 
                   c4h8coch3-3  c4h8coch3-4  c4h7ooh1-4  c4h7o1-4  c5h9ooh1-4  c5h9o1-4  c5h9ooh1-5  c5h9o1-5  c6h11ooh1-4  c6h11o1-4 
                   c6h11ooh1-5  c6h11o1-5  c4h71-4  ar """,
      reactions = "all",
      initial_state = state(temperature = 300.0,
                        pressure = OneAtm)    )



#-------------------------------------------------------------------------------
#  Species data 
#-------------------------------------------------------------------------------

species(name = "h",
    atoms = " H:1 ",
    thermo = (
       NASA( [  300.00,  1000.00], [  2.501044220E+00,   0.000000000E+00, 
                0.000000000E+00,   0.000000000E+00,   0.000000000E+00,
                2.547474660E+04,  -4.653413170E-01] ),
       NASA( [ 1000.00,  5000.00], [  2.501044220E+00,   0.000000000E+00, 
                0.000000000E+00,   0.000000000E+00,   0.000000000E+00,
                2.547474660E+04,  -4.653413170E-01] )
             ),
    note = "8/12/99 therm"
       )

species(name = "h2",
    atoms = " H:2 ",
    thermo = (
       NASA( [  300.00,  1000.00], [  3.298124000E+00,   8.249442000E-04, 
               -8.143015000E-07,  -9.475434000E-11,   4.134872000E-13,
               -1.012521000E+03,  -3.294094000E+00] ),
       NASA( [ 1000.00,  5000.00], [  2.991423000E+00,   7.000644000E-04, 
               -5.633829000E-08,  -9.231578000E-12,   1.582752000E-15,
               -8.350340000E+02,  -1.355110000E+00] )
             ),
    note = "121286"
       )

species(name = "o",
    atoms = " O:1 ",
    thermo = (
       NASA( [  300.00,  1000.00], [  2.946429000E+00,  -1.638166000E-03, 
                2.421032000E-06,  -1.602843000E-09,   3.890696000E-13,
                2.914764000E+04,   2.963995000E+00] ),
       NASA( [ 1000.00,  5000.00], [  2.542060000E+00,  -2.755062000E-05, 
               -3.102803000E-09,   4.551067000E-12,  -4.368052000E-16,
                2.923080000E+04,   4.920308000E+00] )
             ),
    note = "120186"
       )

species(name = "o2",
    atoms = " O:2 ",
    thermo = (
       NASA( [  300.00,  1000.00], [  3.212936000E+00,   1.127486000E-03, 
               -5.756150000E-07,   1.313877000E-09,  -8.768554000E-13,
               -1.005249000E+03,   6.034738000E+00] ),
       NASA( [ 1000.00,  5000.00], [  3.697578000E+00,   6.135197000E-04, 
               -1.258842000E-07,   1.775281000E-11,  -1.136435000E-15,
               -1.233930000E+03,   3.189166000E+00] )
             ),
    note = "121386"
       )

species(name = "oh",
    atoms = " H:1  O:1 ",
    thermo = (
       NASA( [  300.00,  1357.00], [  3.435862190E+00,   2.022358040E-04, 
               -1.135464120E-07,   2.424451490E-10,  -7.436510310E-14,
                3.743212520E+03,   2.450141270E+00] ),
       NASA( [ 1357.00,  5000.00], [  2.625997540E+00,   1.319924060E-03, 
               -3.597246700E-07,   4.256308000E-11,  -1.820480160E-15,
                4.120853740E+03,   7.106673070E+00] )
             ),
    note = "8/12/99 therm"
       )

species(name = "h2o",
    atoms = " H:2  O:1 ",
    thermo = (
       NASA( [  300.00,  1000.00], [  3.386842000E+00,   3.474982000E-03, 
               -6.354696000E-06,   6.968581000E-09,  -2.506588000E-12,
               -3.020811000E+04,   2.590233000E+00] ),
       NASA( [ 1000.00,  5000.00], [  2.672146000E+00,   3.056293000E-03, 
               -8.730260000E-07,   1.200996000E-10,  -6.391618000E-15,
               -2.989921000E+04,   6.862817000E+00] )
             ),
    note = "20387"
       )

species(name = "n2",
    atoms = " N:2 ",
    thermo = (
       NASA( [  300.00,  1000.00], [  3.298677000E+00,   1.408240000E-03, 
               -3.963222000E-06,   5.641515000E-09,  -2.444855000E-12,
               -1.020900000E+03,   3.950372000E+00] ),
       NASA( [ 1000.00,  5000.00], [  2.926640000E+00,   1.487977000E-03, 
               -5.684761000E-07,   1.009704000E-10,  -6.753351000E-15,
               -9.227977000E+02,   5.980528000E+00] )
             ),
    note = "121286"
       )

species(name = "co",
    atoms = " C:1  O:1 ",
    thermo = (
       NASA( [  300.00,  1000.00], [  3.262452000E+00,   1.511941000E-03, 
               -3.881755000E-06,   5.581944000E-09,  -2.474951000E-12,
               -1.431054000E+04,   4.848897000E+00] ),
       NASA( [ 1000.00,  5000.00], [  3.025078000E+00,   1.442689000E-03, 
               -5.630828000E-07,   1.018581000E-10,  -6.910952000E-15,
               -1.426835000E+04,   6.108218000E+00] )
             ),
    note = "121286"
       )

species(name = "hco",
    atoms = " H:1  C:1  O:1 ",
    thermo = (
       NASA( [  300.00,  1000.00], [  2.898330000E+00,   6.199147000E-03, 
               -9.623084000E-06,   1.089825000E-08,  -4.574885000E-12,
                4.159922000E+03,   8.983614000E+00] ),
       NASA( [ 1000.00,  5000.00], [  3.557271000E+00,   3.345573000E-03, 
               -1.335006000E-06,   2.470573000E-10,  -1.713851000E-14,
                3.916324000E+03,   5.552299000E+00] )
             ),
    note = "121286"
       )

species(name = "co2",
    atoms = " C:1  O:2 ",
    thermo = (
       NASA( [  300.00,  1000.00], [  2.275725000E+00,   9.922072000E-03, 
               -1.040911000E-05,   6.866687000E-09,  -2.117280000E-12,
               -4.837314000E+04,   1.018849000E+01] ),
       NASA( [ 1000.00,  5000.00], [  4.453623000E+00,   3.140169000E-03, 
               -1.278411000E-06,   2.393997000E-10,  -1.669033000E-14,
               -4.896696000E+04,  -9.553959000E-01] )
             ),
    note = "121286"
       )

species(name = "ch3",
    atoms = " C:1  H:3 ",
    thermo = (
       NASA( [  300.00,  1000.00], [  2.430443000E+00,   1.112410000E-02, 
               -1.680220000E-05,   1.621829000E-08,  -5.864953000E-12,
                1.642378000E+04,   6.789794000E+00] ),
       NASA( [ 1000.00,  5000.00], [  2.844052000E+00,   6.137974000E-03, 
               -2.230345000E-06,   3.785161000E-10,  -2.452159000E-14,
                1.643781000E+04,   5.452697000E+00] )
             ),
    note = "121286"
       )

species(name = "ch4",
    atoms = " C:1  H:4 ",
    thermo = (
       NASA( [  300.00,  1000.00], [  7.787415000E-01,   1.747668000E-02, 
               -2.783409000E-05,   3.049708000E-08,  -1.223931000E-11,
               -9.825229000E+03,   1.372219000E+01] ),
       NASA( [ 1000.00,  5000.00], [  1.683479000E+00,   1.023724000E-02, 
               -3.875129000E-06,   6.785585000E-10,  -4.503423000E-14,
               -1.008079000E+04,   9.623395000E+00] )
             ),
    note = "121286"
       )

species(name = "ho2",
    atoms = " H:1  O:2 ",
    thermo = (
       NASA( [  300.00,  1390.00], [  3.183106560E+00,   3.667679500E-03, 
               -9.323851220E-07,  -3.258529190E-10,   1.511399120E-13,
                8.091810130E+02,   8.393710990E+00] ),
       NASA( [ 1390.00,  5000.00], [  4.105474230E+00,   2.384528350E-03, 
               -8.063479890E-07,   1.241917230E-10,  -7.164001080E-15,
                3.981276890E+02,   3.125158360E+00] )
             ),
    note = "8/12/99 therm"
       )

species(name = "h2o2",
    atoms = " H:2  O:2 ",
    thermo = (
       NASA( [  300.00,  1000.00], [  3.388754000E+00,   6.569226000E-03, 
               -1.485013000E-07,  -4.625806000E-09,   2.471515000E-12,
               -1.766315000E+04,   6.785363000E+00] ),
       NASA( [ 1000.00,  5000.00], [  4.573167000E+00,   4.336136000E-03, 
               -1.474689000E-06,   2.348904000E-10,  -1.431654000E-14,
               -1.800696000E+04,   5.011370000E-01] )
             ),
    note = "120186"
       )

species(name = "ch2o",
    atoms = " C:1  H:2  O:1 ",
    thermo = (
       NASA( [  300.00,  1000.00], [  1.652731000E+00,   1.263144000E-02, 
               -1.888168000E-05,   2.050031000E-08,  -8.413237000E-12,
               -1.486540000E+04,   1.378482000E+01] ),
       NASA( [ 1000.00,  5000.00], [  2.995606000E+00,   6.681321000E-03, 
               -2.628955000E-06,   4.737153000E-10,  -3.212517000E-14,
               -1.532037000E+04,   6.912572000E+00] )
             ),
    note = "121286"
       )

species(name = "ch3o",
    atoms = " C:1  H:3  O:1 ",
    thermo = (
       NASA( [  300.00,  1000.00], [  2.106204000E+00,   7.216595000E-03, 
                5.338472000E-06,  -7.377636000E-09,   2.075611000E-12,
                9.786011000E+02,   1.315218000E+01] ),
       NASA( [ 1000.00,  3000.00], [  3.770800000E+00,   7.871497000E-03, 
               -2.656384000E-06,   3.944431000E-10,  -2.112616000E-14,
                1.278325000E+02,   2.929575000E+00] )
             ),
    note = "121686"
       )

species(name = "c2h6",
    atoms = " C:2  H:6 ",
    thermo = (
       NASA( [  300.00,  1384.00], [ -2.528543440E-02,   2.407647540E-02, 
               -1.118934720E-05,   2.083409010E-09,  -5.298686160E-14,
               -1.123455340E+04,   2.116487500E+01] ),
       NASA( [ 1384.00,  5000.00], [  6.106833850E+00,   1.292363610E-02, 
               -4.425271960E-06,   6.873917260E-10,  -3.989017320E-14,
               -1.375000140E+04,  -1.300812500E+01] )
             ),
    note = "1/14/95 therm"
       )

species(name = "c2h4",
    atoms = " C:2  H:4 ",
    thermo = (
       NASA( [  300.00,  1000.00], [ -8.614880000E-01,   2.796163000E-02, 
               -3.388677000E-05,   2.785152000E-08,  -9.737879000E-12,
                5.573046000E+03,   2.421149000E+01] ),
       NASA( [ 1000.00,  5000.00], [  3.528419000E+00,   1.148518000E-02, 
               -4.418385000E-06,   7.844601000E-10,  -5.266848000E-14,
                4.428289000E+03,   2.230389000E+00] )
             ),
    note = "121286"
       )

species(name = "c2h5",
    atoms = " C:2  H:5 ",
    thermo = (
       NASA( [  300.00,  1000.00], [  2.690702000E+00,   8.719133000E-03, 
                4.419839000E-06,   9.338703000E-10,  -3.927773000E-12,
                1.287040000E+04,   1.213820000E+01] ),
       NASA( [ 1000.00,  5000.00], [  7.190480000E+00,   6.484077000E-03, 
               -6.428065000E-07,  -2.347879000E-10,   3.880877000E-14,
                1.067455000E+04,  -1.478089000E+01] )
             ),
    note = "12387"
       )

species(name = "ch2",
    atoms = " C:1  H:2 ",
    thermo = (
       NASA( [  250.00,  1000.00], [  3.762237000E+00,   1.159819000E-03, 
                2.489585000E-07,   8.800836000E-10,  -7.332435000E-13,
                4.536791000E+04,   1.712578000E+00] ),
       NASA( [ 1000.00,  4000.00], [  3.636408000E+00,   1.933057000E-03, 
               -1.687016000E-07,  -1.009899000E-10,   1.808256000E-14,
                4.534134000E+04,   2.156561000E+00] )
             ),
    note = "120186"
       )

species(name = "ch",
    atoms = " C:1  H:1 ",
    thermo = (
       NASA( [  300.00,  1000.00], [  3.200202000E+00,   2.072876000E-03, 
               -5.134431000E-06,   5.733890000E-09,  -1.955533000E-12,
                7.045259000E+04,   3.331588000E+00] ),
       NASA( [ 1000.00,  5000.00], [  2.196223000E+00,   2.340381000E-03, 
               -7.058201000E-07,   9.007582000E-11,  -3.855040000E-15,
                7.086723000E+04,   9.178373000E+00] )
             ),
    note = "121286"
       )

species(name = "c2h",
    atoms = " C:2  H:1 ",
    thermo = (
       NASA( [  300.00,  1000.00], [  2.737704000E+00,   8.048446000E-03, 
               -9.244310000E-06,   6.525259000E-09,  -1.939580000E-12,
                6.683813000E+04,   7.300220000E+00] ),
       NASA( [ 1000.00,  4000.00], [  3.986367000E+00,   3.143123000E-03, 
               -1.267243000E-06,   2.924363000E-10,  -2.716320000E-14,
                6.655884000E+04,   1.191063000E+00] )
             ),
    note = "81193"
       )

species(name = "c2h2",
    atoms = " C:2  H:2 ",
    thermo = (
       NASA( [  300.00,  1000.00], [  2.013562000E+00,   1.519045000E-02, 
               -1.616319000E-05,   9.078992000E-09,  -1.912746000E-12,
                2.612444000E+04,   8.805378000E+00] ),
       NASA( [ 1000.00,  5000.00], [  4.436770000E+00,   5.376039000E-03, 
               -1.912817000E-06,   3.286379000E-10,  -2.156710000E-14,
                2.566766000E+04,  -2.800338000E+00] )
             ),
    note = "121386"
       )

species(name = "c2h3",
    atoms = " C:2  H:3 ",
    thermo = (
       NASA( [  300.00,  1000.00], [  2.459276000E+00,   7.371476000E-03, 
                2.109873000E-06,  -1.321642000E-09,  -1.184784000E-12,
                3.335225000E+04,   1.155620000E+01] ),
       NASA( [ 1000.00,  5000.00], [  5.933468000E+00,   4.017746000E-03, 
               -3.966740000E-07,  -1.441267000E-10,   2.378644000E-14,
                3.185435000E+04,  -8.530313000E+00] )
             ),
    note = "12787"
       )

species(name = "ch3oh",
    atoms = " C:1  H:4  O:1 ",
    thermo = (
       NASA( [  300.00,  1000.00], [  2.660115000E+00,   7.341508000E-03, 
                7.170051000E-06,  -8.793194000E-09,   2.390570000E-12,
               -2.535348000E+04,   1.123263000E+01] ),
       NASA( [ 1000.00,  5000.00], [  4.029061000E+00,   9.376593000E-03, 
               -3.050254000E-06,   4.358793000E-10,  -2.224723000E-14,
               -2.615791000E+04,   2.378196000E+00] )
             ),
    note = "121686"
       )

species(name = "ch2oh",
    atoms = " H:3  C:1  O:1 ",
    thermo = (
       NASA( [  250.00,  1000.00], [  2.862628000E+00,   1.001527000E-02, 
               -5.285436000E-07,  -5.138540000E-09,   2.246041000E-12,
               -3.349679000E+03,   1.039794000E+01] ),
       NASA( [ 1000.00,  4000.00], [  6.327520000E+00,   3.608271000E-03, 
               -3.201547000E-07,  -1.938750000E-10,   3.509705000E-14,
               -4.474509000E+03,  -8.329366000E+00] )
             ),
    note = "120186"
       )

species(name = "ch2co",
    atoms = " C:2  H:2  O:1 ",
    thermo = (
       NASA( [  300.00,  1000.00], [  2.974971000E+00,   1.211871000E-02, 
               -2.345046000E-06,  -6.466685000E-09,   3.905649000E-12,
               -7.632637000E+03,   8.673553000E+00] ),
       NASA( [ 1000.00,  5000.00], [  6.038817000E+00,   5.804840000E-03, 
               -1.920954000E-06,   2.794485000E-10,  -1.458868000E-14,
               -8.583402000E+03,  -7.657581000E+00] )
             ),
    note = "121686"
       )

species(name = "hcco",
    atoms = " H:1  C:2  O:1 ",
    thermo = (
       NASA( [  300.00,  1000.00], [  5.047965000E+00,   4.453478000E-03, 
                2.268283000E-07,  -1.482095000E-09,   2.250742000E-13,
                1.965892000E+04,   4.818439000E-01] ),
       NASA( [ 1000.00,  4000.00], [  6.758073000E+00,   2.000400000E-03, 
               -2.027607000E-07,  -1.041132000E-10,   1.965165000E-14,
                1.901513000E+04,  -9.071262000E+00] )
             ),
    note = "32387"
       )

species(name = "c2h5oh",
    atoms = " C:2  H:6  O:1 ",
    thermo = (
       NASA( [  300.00,  1391.00], [  4.231490450E-01,   2.928581670E-02, 
               -1.738450990E-05,   5.336398920E-09,  -6.749172520E-13,
               -2.956830540E+04,   2.335387630E+01] ),
       NASA( [ 1391.00,  5000.00], [  7.952648410E+00,   1.315741440E-02, 
               -4.436933590E-06,   6.822011600E-10,  -3.930963350E-14,
               -3.236029580E+04,  -1.765379720E+01] )
             ),
    note = "3/12/95 therm"
       )

species(name = "pc2h4oh",
    atoms = " C:2  H:5  O:1 ",
    thermo = (
       NASA( [  300.00,  1391.00], [  1.177147110E+00,   2.481156850E-02, 
               -1.502995030E-05,   4.790067850E-09,  -6.409942110E-13,
               -4.953690430E+03,   2.200815860E+01] ),
       NASA( [ 1391.00,  5000.00], [  7.522419390E+00,   1.104927150E-02, 
               -3.725764650E-06,   5.728273970E-10,  -3.300617590E-14,
               -7.293335900E+03,  -1.249587320E+01] )
             ),
    note = "3/12/95 therm"
       )

species(name = "sc2h4oh",
    atoms = " C:2  H:5  O:1 ",
    thermo = (
       NASA( [  300.00,  1392.00], [  1.914964770E+00,   2.456931450E-02, 
               -1.630753990E-05,   6.122823610E-09,  -1.007843630E-12,
               -8.621615510E+03,   1.659873090E+01] ),
       NASA( [ 1392.00,  5000.00], [  7.835245170E+00,   1.088081980E-02, 